#	Name:			LIM::LDT_320-A_pdb1us0_1
#	Creating user name:	czodro
#	Creation time:		Wed Feb  2 10:16:29 2005

#	Modifying user name:	czodro
#	Modification time:	Wed Feb  2 10:16:39 2005

@<TRIPOS>MOLECULE
LIM::LDT_320-A_pdb1us0_1
   35    36     1     0     0
SMALL
NO_CHARGES


@<TRIPOS>ATOM
      1 C2         15.6400   -9.4110   18.1200 C.ar      1 LIG         0.0000 
      2 C3         15.9720  -10.3230   15.5230 C.ar      1 LIG         0.0000 
      3 C4         16.5250   -8.7630   17.2660 C.ar      1 LIG         0.0000 
      4 C5         14.9520  -10.5000   17.6370 C.ar      1 LIG         0.0000 
      5 C6         15.0900  -10.9890   16.3460 C.ar      1 LIG         0.0000 
      6 C7         16.6860   -9.2100   15.9390 C.ar      1 LIG         0.0000 
      7 BR8        14.8790   -3.7460    9.6860 Br        1 LIG         0.0000 
      8 F9         14.1120  -11.1350   18.4840 F         1 LIG         0.0000 
      9 C11        17.5610   -8.5030   14.9740 C.2       1 LIG         0.0000 
     10 C13        18.2490   -6.3210   14.1510 C.3       1 LIG         0.0000 
     11 F14        19.1990   -4.3570   12.4630 F         1 LIG         0.0000 
     12 O15        17.3380   -7.7550   17.6750 O.3       1 LIG         0.0000 
     13 S16        18.5130   -9.3640   13.8880 S.3       1 LIG         0.0000 
     14 N17        17.4890   -7.1870   15.0190 N.pl3     1 LIG         0.0000 
     15 C20        16.8200   -6.8740   18.6680 C.3       1 LIG         0.0000 
     16 C24        17.4200   -5.7730   13.0230 C.ar      1 LIG         0.0000 
     17 C25        15.9480   -4.5980   10.9740 C.ar      1 LIG         0.0000 
     18 C26        16.1200   -6.1790   12.7580 C.ar      1 LIG         0.0000 
     19 C27        17.9320   -4.7820   12.2100 C.ar      1 LIG         0.0000 
     20 C28        17.2360   -4.1760   11.1900 C.ar      1 LIG         0.0000 
     21 C29        15.3660   -5.6010   11.7400 C.ar      1 LIG         0.0000 
     22 C32        15.6720   -6.0140   18.1320 C.2       1 LIG         0.0000 
     23 O33        14.9550   -5.4940   19.0320 O.co2     1 LIG         0.0000 
     24 O34        15.5530   -5.8820   16.9060 O.co2     1 LIG         0.0000 
     25 H1         15.4960   -9.0678   19.1381 H         1 LIG         0.0000 
     26 H2         16.1130  -10.6836   14.5105 H         1 LIG         0.0000 
     27 H3         14.5317  -11.8521   16.0018 H         1 LIG         0.0000 
     28 H4         18.6351   -5.4733   14.7361 H         1 LIG         0.0000 
     29 H5         19.0851   -6.8892   13.7175 H         1 LIG         0.0000 
     30 H6         16.8579   -6.7554   15.7092 H         1 LIG         0.0000 
     31 H7         16.4405   -7.4660   19.5138 H         1 LIG         0.0000 
     32 H8         17.6219   -6.2031   19.0097 H         1 LIG         0.0000 
     33 H9         15.6799   -6.9665   13.3590 H         1 LIG         0.0000 
     34 H10        17.6855   -3.3985   10.5829 H         1 LIG         0.0000 
     35 H11        14.3494   -5.9256   11.5495 H         1 LIG         0.0000 
@<TRIPOS>BOND
     1    3    1 ar   
     2    1    4 ar   
     3    2    5 ar   
     4    6    2 ar   
     5    6    3 ar   
     6    3   12 1    
     7    5    4 ar   
     8    4    8 1    
     9    9    6 1    
    10   17    7 1    
    11    9   13 2    
    12   14    9 1    
    13   10   14 1    
    14   16   10 1    
    15   19   11 1    
    16   12   15 1    
    17   15   22 1    
    18   18   16 ar   
    19   16   19 ar   
    20   17   20 ar   
    21   21   17 ar   
    22   18   21 ar   
    23   19   20 ar   
    24   22   23 1    
    25   22   24 2    
    26    1   25 1    
    27    2   26 1    
    28    5   27 1    
    29   10   28 1    
    30   10   29 1    
    31   14   30 1    
    32   15   31 1    
    33   15   32 1    
    34   18   33 1    
    35   20   34 1    
    36   21   35 1    
@<TRIPOS>SUBSTRUCTURE
     1 ****        1 TEMP              0 ****  ****    0 ROOT 
