#	Name:			formic acid
#	Creating user name:	czodro
#	Creation time:		Thu Jan 26 08:26:43 2006

#	Modifying user name:	czodro
#	Modification time:	Thu Jan 26 08:27:43 2006

@<TRIPOS>MOLECULE
formic acid
   16    15     1     0     2
SMALL
NO_CHARGES


@<TRIPOS>ATOM
      1 C1         -0.4177   -0.0446    0.0000 C.2       1 LIG         0.0000 
      2 O8         -0.6604    1.1529    0.0000 O.co2     1 LIG         0.0000 
      3 O9          0.8316   -0.5209    0.0000 O.co2     1 LIG         0.0000 
      4 C2         -1.5626   -1.0153    0.0000 C.3       1 LIG         0.0000 
      5 C3         -2.8867   -0.2289   -0.0000 C.3       1 LIG         0.0000 
      6 C4         -4.0613   -1.2248   -0.0000 C.3       1 LIG         0.0000 
      7 C5         -5.3854   -0.4384   -0.0000 C.3       1 LIG         0.0000 
      8 H1         -1.5202   -1.6453   -0.9007 H         1 LIG         0.0000 
      9 H2         -1.5202   -1.6453    0.9007 H         1 LIG         0.0000 
     10 H3         -2.9498    0.3994    0.9007 H         1 LIG         0.0000 
     11 H4         -2.9498    0.3994   -0.9007 H         1 LIG         0.0000 
     12 H5         -4.0190   -1.8548   -0.9007 H         1 LIG         0.0000 
     13 H6         -4.0190   -1.8548    0.9007 H         1 LIG         0.0000 
     14 H7         -6.2244   -1.1498   -0.0000 H         1 LIG         0.0000 
     15 H8         -5.4485    0.1898    0.9007 H         1 LIG         0.0000 
     16 H9         -5.4485    0.1898   -0.9007 H         1 LIG         0.0000 
@<TRIPOS>BOND
     1    1    2 2    
     2    1    3 1    
     3    1    4 1    
     4    4    5 1    
     5    5    6 1    
     6    6    7 1    
     7    4    8 1    
     8    4    9 1    
     9    5   10 1    
    10    5   11 1    
    11    6   12 1    
    12    6   13 1    
    13    7   14 1    
    14    7   15 1    
    15    7   16 1    
@<TRIPOS>SUBSTRUCTURE
     1 LIG         1 PERM              0 ****  ****    0 ROOT 
@<TRIPOS>SET
LAB$A_TYPE      STATIC     ATOMS    LABELGROUP SYSTEM 
4 1 2 3 4
LAB$A_USER      STATIC     ATOMS    LABELGROUP SYSTEM 
7 1 2 3 4 5 6 7
