#	Name:			LIM::FD1_999_pdb1k1i_1
#	Creating user name:	czodro
#	Creation time:		Tue Nov 15 09:23:57 2005

#	Modifying user name:	czodro
#	Modification time:	Tue Nov 15 09:25:10 2005

@<TRIPOS>MOLECULE
LIM::FD1_999_pdb1k1i_1
   64    67     1     0     1
SMALL
NO_CHARGES


@<TRIPOS>ATOM
      1 C65        -1.9460   16.3580   17.9190 C.ar      1 <1>         0.0000 
      2 C66        -2.1720   15.7500   16.6690 C.ar      1 <1>         0.0000 
      3 C64        -1.2090   15.6570   18.9080 C.ar      1 <1>         0.0000 
      4 C63        -0.7120   14.3700   18.6440 C.ar      1 <1>         0.0000 
      5 C62        -0.9510   13.7740   17.3880 C.ar      1 <1>         0.0000 
      6 C61        -1.6850   14.4660   16.3940 C.ar      1 <1>         0.0000 
      7 C25        -1.9390   13.8370   15.0520 C.cat     1 <1>         0.0000 
      8 N43        -1.5300   12.6220   14.8450 N.pl3     1 <1>         0.0000 
      9 N54        -2.5590   14.5170   14.1140 N.pl3     1 <1>         0.0000 
     10 C34        -2.4960   17.7690   18.1950 C.3       1 <1>         0.0000 
     11 C31        -1.5620   18.8980   17.7300 C.3       1 <1>         0.0000 
     12 C35        -0.0870   18.6680   18.0210 C.2       1 <1>         0.0000 
     13 O36         0.5340   18.1360   17.1000 O.2       1 <1>         0.0000 
     14 N81         0.5010   19.0230   19.2100 N.am      1 <1>         0.0000 
     15 C71        -0.2470   19.8150   20.2320 C.3       1 <1>         0.0000 
     16 C72         0.6530   21.0230   20.5920 C.3       1 <1>         0.0000 
     17 C74         2.7150   19.5710   19.9480 C.3       1 <1>         0.0000 
     18 C75         1.7780   18.3950   19.6130 C.3       1 <1>         0.0000 
     19 C40         2.0670   20.6970   20.6950 C.3       1 <1>         0.0000 
     20 C91        -0.5820   18.9880   21.4490 C.2       1 <1>         0.0000 
     21 O92        -0.9650   19.5460   22.5220 O.co2     1 <1>         0.0000 
     22 O93        -0.5010   17.7150   21.4050 O.co2     1 <1>         0.0000 
     23 N29        -1.7630   19.2270   16.3130 N.am      1 <1>         0.0000 
     24 S12        -2.1700   20.8310   15.8680 S.o2      1 <1>         0.0000 
     25 O32        -2.4500   20.8760   14.4610 O.2       1 <1>         0.0000 
     26 O33        -3.0810   21.3790   16.8160 O.2       1 <1>         0.0000 
     27 C2         -0.6520   21.6130   16.0820 C.ar      1 <1>         0.0000 
     28 C3          0.4730   21.0990   15.4000 C.ar      1 <1>         0.0000 
     29 C4          1.7430   21.7340   15.5420 C.ar      1 <1>         0.0000 
     30 C9          0.6820   23.4060   17.0380 C.ar      1 <1>         0.0000 
     31 C10         1.8520   22.9000   16.3680 C.ar      1 <1>         0.0000 
     32 C1         -0.5600   22.7480   16.8740 C.ar      1 <1>         0.0000 
     33 C5          3.0890   23.5910   16.5510 C.ar      1 <1>         0.0000 
     34 C6          3.1560   24.7650   17.3910 C.ar      1 <1>         0.0000 
     35 C7          1.9960   25.2380   18.0410 C.ar      1 <1>         0.0000 
     36 C8          0.7660   24.5690   17.8660 C.ar      1 <1>         0.0000 
     37 H1         -2.7310   16.2835   15.9087 H         1 <1>         0.0000 
     38 H2         -1.0284   16.1171   19.8727 H         1 <1>         0.0000 
     39 H3         -0.1479   13.8377   19.4013 H         1 <1>         0.0000 
     40 H4         -0.5704   12.7800   17.1824 H         1 <1>         0.0000 
     41 H5         -1.6935   12.1719   13.9331 H         1 <1>         0.0000 
     42 H6         -1.0421   12.1084   15.5927 H         1 <1>         0.0000 
     43 H7         -2.8751   15.4796   14.2993 H         1 <1>         0.0000 
     44 H8         -2.7289   14.0874   13.1934 H         1 <1>         0.0000 
     45 H9         -3.4536   17.8853   17.6665 H         1 <1>         0.0000 
     46 H10        -2.6492   17.8836   19.2782 H         1 <1>         0.0000 
     47 H11        -1.8567   19.7945   18.2951 H         1 <1>         0.0000 
     48 H12        -1.1949   20.1723   19.8034 H         1 <1>         0.0000 
     49 H13         0.5419   21.7904   19.8118 H         1 <1>         0.0000 
     50 H14         0.3304   21.4261   21.5632 H         1 <1>         0.0000 
     51 H15         3.5409   19.1934   20.5686 H         1 <1>         0.0000 
     52 H16         3.1102   19.9814   19.0071 H         1 <1>         0.0000 
     53 H17         1.6399   17.7601   20.5005 H         1 <1>         0.0000 
     54 H18         2.2003   17.8011   18.7890 H         1 <1>         0.0000 
     55 H19         2.6141   21.6005   20.3878 H         1 <1>         0.0000 
     56 H20         2.2574   20.4864   21.7577 H         1 <1>         0.0000 
     57 H21        -1.6631   18.5201   15.6128 H         1 <1>         0.0000 
     58 H22         0.3718   20.2231   14.7694 H         1 <1>         0.0000 
     59 H23         2.6141   21.3394   15.0316 H         1 <1>         0.0000 
     60 H24        -1.4439   23.1328   17.3698 H         1 <1>         0.0000 
     61 H25         3.9841   23.2319   16.0560 H         1 <1>         0.0000 
     62 H26         4.0990   25.2833   17.5221 H         1 <1>         0.0000 
     63 H27         2.0500   26.1156   18.6750 H         1 <1>         0.0000 
     64 H28        -0.1229   24.9398   18.3635 H         1 <1>         0.0000 
@<TRIPOS>BOND
     1    1    2 ar   
     2    1    3 ar   
     3    1   10 1    
     4    2    6 ar   
     5    3    4 ar   
     6    4    5 ar   
     7    5    6 ar   
     8    6    7 1    
     9    7    8 ar   
    10    7    9 ar   
    11   10   11 1    
    12   11   12 1    
    13   11   23 1    
    14   12   13 2    
    15   12   14 1    
    16   14   15 1    
    17   14   18 1    
    18   15   16 1    
    19   15   20 1    
    20   16   19 1    
    21   18   17 1    
    22   17   19 1    
    23   20   21 2    
    24   20   22 1    
    25   23   24 1    
    26   24   25 2    
    27   24   26 2    
    28   24   27 1    
    29   27   28 ar   
    30   27   32 ar   
    31   28   29 ar   
    32   29   31 ar   
    33   31   30 ar   
    34   30   32 ar   
    35   30   36 ar   
    36   31   33 ar   
    37   33   34 ar   
    38   34   35 ar   
    39   35   36 ar   
    40    2   37 1    
    41    3   38 1    
    42    4   39 1    
    43    5   40 1    
    44    8   41 1    
    45    8   42 1    
    46    9   43 1    
    47    9   44 1    
    48   10   45 1    
    49   10   46 1    
    50   11   47 1    
    51   15   48 1    
    52   16   49 1    
    53   16   50 1    
    54   17   51 1    
    55   17   52 1    
    56   18   53 1    
    57   18   54 1    
    58   19   55 1    
    59   19   56 1    
    60   23   57 1    
    61   28   58 1    
    62   29   59 1    
    63   32   60 1    
    64   33   61 1    
    65   34   62 1    
    66   35   63 1    
    67   36   64 1    
@<TRIPOS>SUBSTRUCTURE
     1 ****        1 TEMP              0 ****  ****    0 ROOT 
@<TRIPOS>SET
LAB$A_TYPE      STATIC     ATOMS    LABELGROUP SYSTEM 
36 1 2 3 4 5 6 7 8 9 10 11 12 13 14 15 16 17 18 19 \
 20 21 22 23 24 25 26 27 28 29 30 31 32 33 34 35 36
