#	Name:			formic acid
#	Creating user name:	becker
#	Creation time:		Fri Feb 27 19:29:19 2004

#	Modifying user name:	czodro
#	Modification time:	Thu Jan  5 14:27:44 2006

@<TRIPOS>MOLECULE
formic acid
    4     3     1     1     1
SMALL
NO_CHARGES


@<TRIPOS>ATOM
      1 C1         11.5800   -5.5641   24.0423 C.2       1 LIG         0.0000 
      2 O5         11.2621   -4.3854   23.9904 O.co2     1 LIG         0.0000 
      3 O6         12.8533   -5.9570   24.1510 O.co2     1 LIG         1.0000 
      4 C2         10.5028   -6.6077   23.9820 C.3       1 LIG         0.0000 
@<TRIPOS>BOND
     1    1    2 2    
     2    1    3 1    
     3    1    4 1    
@<TRIPOS>SUBSTRUCTURE
     1 LIG         1 PERM              0 ****  ****    0 ROOT 
