@<TRIPOS>MOLECULE
LIM::190_1001_pdb1xl5_1
   76    78     1     0     0
SMALL
NO_CHARGES


@<TRIPOS>ATOM
      1 C4         16.6650   18.7630    3.4410 C.ar      1 <1>         0.0000 
      2 C3         16.5430   18.1930    2.1710 C.ar      1 <1>         0.0000 
      3 C8         15.4830   18.7010    1.2020 C.3       1 <1>         0.0000 
      4 C2         17.4130   17.1790    1.7680 C.ar      1 <1>         0.0000 
      5 C1         18.3360   16.6520    2.6670 C.ar      1 <1>         0.0000 
      6 C6         18.4580   17.2150    3.9390 C.ar      1 <1>         0.0000 
      7 C5         17.6320   18.2710    4.3210 C.ar      1 <1>         0.0000 
      8 C7         17.7680   18.8810    5.7130 C.3       1 <1>         0.0000 
      9 O9         15.8330   19.8140    3.8350 O.3       1 <1>         0.0000 
     10 C10        14.7020   19.3290    4.5510 C.3       1 <1>         0.0000 
     11 C11        13.8550   20.4540    5.0650 C.2       1 <1>         0.0000 
     12 O12        12.7490   20.1580    5.5160 O.2       1 <1>         0.0000 
     13 N13        14.5170   21.5830    5.3930 N.am      1 <1>         0.0000 
     14 C14        13.8140   22.6680    6.0500 C.3       1 <1>         0.0000 
     15 C16        14.7340   23.2720    7.1380 C.3       1 <1>         0.0000 
     16 C15        15.1030   22.1330    8.0840 C.ar      1 <1>         0.0000 
     17 C42        14.1320   21.4430    8.8010 C.ar      1 <1>         0.0000 
     18 C43        14.5020   20.3860    9.6460 C.ar      1 <1>         0.0000 
     19 C44        15.8660   20.0610    9.7700 C.ar      1 <1>         0.0000 
     20 BR17       18.6530   20.4050    9.1620 Br        1 <1>         0.0000 
     21 C45        16.8250   20.7690    9.0420 C.ar      1 <1>         0.0000 
     22 C46        16.4520   21.8180    8.2160 C.ar      1 <1>         0.0000 
     23 C23        13.4280   23.7410    4.9990 C.2       1 <1>         0.0000 
     24 O38        14.6100   24.5090    4.7010 O.3       1 <1>         0.0000 
     25 C24        12.3630   24.6560    5.6450 C.3       1 <1>         0.0000 
     26 C25        10.9820   24.0190    5.7370 C.3       1 <1>         0.0000 
     27 S30        10.3960   23.7390    7.3860 S.o2      1 <1>         0.0000 
     28 O39        11.4940   23.4780    8.3070 O.2       1 <1>         0.0000 
     29 O40         9.3260   22.7380    7.3360 O.2       1 <1>         0.0000 
     30 C31         9.6330   25.2370    7.9580 C.ar      1 <1>         0.0000 
     31 C32        10.3690   26.2150    8.6210 C.ar      1 <1>         0.0000 
     32 C33         9.7360   27.3910    9.0750 C.ar      1 <1>         0.0000 
     33 C34         8.3680   27.5550    8.8560 C.ar      1 <1>         0.0000 
     34 F37         7.7590   28.6750    9.2160 F         1 <1>         0.0000 
     35 C35         7.6210   26.5830    8.1840 C.ar      1 <1>         0.0000 
     36 C36         8.2590   25.4210    7.7480 C.ar      1 <1>         0.0000 
     37 C26         9.9700   24.4190    4.6820 C.3       1 <1>         0.0000 
     38 C27        10.2180   23.7890    3.2920 C.3       1 <1>         0.0000 
     39 C28         9.2720   24.4560    2.2640 C.3       1 <1>         0.0000 
     40 C29         9.8730   22.2850    3.3280 C.3       1 <1>         0.0000 
     41 H1         15.5498   18.1279    0.2655 H         1 <1>         0.0000 
     42 H2         14.4815   18.5632    1.6356 H         1 <1>         0.0000 
     43 H3         15.6539   19.7654    0.9834 H         1 <1>         0.0000 
     44 H4         17.3700   16.8010    0.7529 H         1 <1>         0.0000 
     45 H5         18.9561   15.8100    2.3814 H         1 <1>         0.0000 
     46 H6         19.1974   16.8296    4.6317 H         1 <1>         0.0000 
     47 H7         17.0348   19.6939    5.8210 H         1 <1>         0.0000 
     48 H8         17.5703   18.1163    6.4786 H         1 <1>         0.0000 
     49 H9         18.7799   19.2915    5.8454 H         1 <1>         0.0000 
     50 H10        14.0866   18.7086    3.8829 H         1 <1>         0.0000 
     51 H11        15.0431   18.7314    5.4092 H         1 <1>         0.0000 
     52 H12        15.4908   21.6714    5.1834 H         1 <1>         0.0000 
     53 H13        12.8915   22.2896    6.5145 H         1 <1>         0.0000 
     54 H14        15.6473   23.6845    6.6844 H         1 <1>         0.0000 
     55 H15        14.2048   24.0580    7.6967 H         1 <1>         0.0000 
     56 H16        13.0887   21.7218    8.7071 H         1 <1>         0.0000 
     57 H17        13.7505   19.8292   10.1940 H         1 <1>         0.0000 
     58 H18        16.1728   19.2594   10.4320 H         1 <1>         0.0000 
     59 H19        17.2027   22.3865    7.6790 H         1 <1>         0.0000 
     60 H20        14.3932   25.1732    4.0573 H         1 <1>         0.0000 
     61 H21        12.6856   24.9086    6.6658 H         1 <1>         0.0000 
     62 H22        12.2715   25.5721    5.0431 H         1 <1>         0.0000 
     63 H23        11.1954   22.9909    5.4093 H         1 <1>         0.0000 
     64 H24        11.4304   26.0726    8.7887 H         1 <1>         0.0000 
     65 H25        10.3054   28.1578    9.5877 H         1 <1>         0.0000 
     66 H26         6.5621   26.7297    8.0043 H         1 <1>         0.0000 
     67 H27         7.6862   24.6525    7.2416 H         1 <1>         0.0000 
     68 H28         8.9704   24.1053    5.0172 H         1 <1>         0.0000 
     69 H29         9.9998   25.5121    4.5632 H         1 <1>         0.0000 
     70 H30        11.2697   23.9173    2.9964 H         1 <1>         0.0000 
     71 H31         9.4467   24.0093    1.2741 H         1 <1>         0.0000 
     72 H32         8.2244   24.2868    2.5534 H         1 <1>         0.0000 
     73 H33         9.4768   25.5354    2.2110 H         1 <1>         0.0000 
     74 H34        10.5317   21.7837    4.0525 H         1 <1>         0.0000 
     75 H35         8.8272   22.1474    3.6399 H         1 <1>         0.0000 
     76 H36        10.0296   21.8403    2.3342 H         1 <1>         0.0000 
@<TRIPOS>BOND
     1    1    2 ar   
     2    1    7 ar   
     3    1    9 1    
     4    2    3 1    
     5    2    4 ar   
     6    4    5 ar   
     7    5    6 ar   
     8    6    7 ar   
     9    7    8 1    
    10    9   10 1    
    11   10   11 1    
    12   11   12 2    
    13   11   13 1    
    14   13   14 1    
    15   14   15 1    
    16   14   23 1    
    17   15   16 1    
    18   16   17 ar   
    19   16   22 ar   
    20   17   18 ar   
    21   18   19 ar   
    22   19   21 ar   
    23   21   20 1    
    24   21   22 ar   
    25   23   24 1    
    26   23   25 1    
    27   25   26 1    
    28   26   27 1    
    29   26   37 1    
    30   27   28 2    
    31   27   29 2    
    32   27   30 1    
    33   30   31 ar   
    34   30   36 ar   
    35   31   32 ar   
    36   32   33 ar   
    37   33   34 1    
    38   33   35 ar   
    39   35   36 ar   
    40   37   38 1    
    41   38   39 1    
    42   38   40 1    
    43    3   41 1    
    44    3   42 1    
    45    3   43 1    
    46    4   44 1    
    47    5   45 1    
    48    6   46 1    
    49    8   47 1    
    50    8   48 1    
    51    8   49 1    
    52   10   50 1    
    53   10   51 1    
    54   13   52 1    
    55   14   53 1    
    56   15   54 1    
    57   15   55 1    
    58   17   56 1    
    59   18   57 1    
    60   19   58 1    
    61   22   59 1    
    62   24   60 1    
    63   25   61 1    
    64   25   62 1    
    65   26   63 1    
    66   31   64 1    
    67   32   65 1    
    68   35   66 1    
    69   36   67 1    
    70   37   68 1    
    71   37   69 1    
    72   38   70 1    
    73   39   71 1    
    74   39   72 1    
    75   39   73 1    
    76   40   74 1    
    77   40   75 1    
    78   40   76 1    
@<TRIPOS>SUBSTRUCTURE
     1 ****        1 TEMP              0 ****  ****    0 ROOT 
