@<TRIPOS>MOLECULE
LIM::478_200_pdb1hpv_1
   70    72     1     0     1
SMALL
NO_CHARGES


@<TRIPOS>ATOM
      1 C1         11.1690   14.9770    2.4450 C.3       1 <1>         0.0000 
      2 C2          9.1760   16.2240    2.9970 C.3       1 <1>         0.0000 
      3 C3         10.1490   15.7020    5.9990 C.2       1 <1>         0.0000 
      4 C4         10.1130   15.1490    3.5480 C.3       1 <1>         0.0000 
      5 C5         10.9600   16.6620    8.1450 C.3       1 <1>         0.0000 
      6 C6         10.3870   18.1190    8.4840 C.3       1 <1>         0.0000 
      7 C7         12.4160   16.2780    8.6520 C.3       1 <1>         0.0000 
      8 C8         12.8310   14.9140    8.1700 C.ar      1 <1>         0.0000 
      9 C9         13.6360   14.8250    6.9780 C.ar      1 <1>         0.0000 
     10 C10        12.2990   13.7060    8.7650 C.ar      1 <1>         0.0000 
     11 C11        13.8910   13.5660    6.3310 C.ar      1 <1>         0.0000 
     12 C12        12.5740   12.4340    8.1160 C.ar      1 <1>         0.0000 
     13 C13        13.3710   12.3570    6.8870 C.ar      1 <1>         0.0000 
     14 C14         9.6950   18.4110    9.8910 C.3       1 <1>         0.0000 
     15 C15         7.3810   17.6970    9.1700 C.3       1 <1>         0.0000 
     16 C16         6.1860   18.4060    9.7900 C.3       1 <1>         0.0000 
     17 C17         8.8320   16.3810   12.8860 C.ar      1 <1>         0.0000 
     18 C18        10.0730   16.3630   13.6040 C.ar      1 <1>         0.0000 
     19 C19        10.0920   16.6920   14.9920 C.ar      1 <1>         0.0000 
     20 C20         8.8650   17.0540   15.6200 C.ar      1 <1>         0.0000 
     21 C21         7.6520   17.0060   14.9260 C.ar      1 <1>         0.0000 
     22 C22         7.6390   16.6690   13.5550 C.ar      1 <1>         0.0000 
     23 C23         6.1460   19.9370    9.6140 C.3       1 <1>         0.0000 
     24 C24         4.8220   17.6950    9.7310 C.3       1 <1>         0.0000 
     25 C25         9.7510   16.6260    1.6330 C.3       1 <1>         0.0000 
     26 N1         10.9400   16.4720    6.7130 N.am      1 <1>         0.0000 
     27 N2          8.5160   17.5800   10.2280 N.am      1 <1>         0.0000 
     28 N3          8.8400   17.3220   16.8980 N.pl3     1 <1>         0.0000 
     29 O1         10.7260   15.6620    4.7310 O.3       1 <1>         0.0000 
     30 O2          9.0810   15.3130    6.2870 O.2       1 <1>         0.0000 
     31 O3         11.4320   19.0300    8.4660 O.3       1 <1>         0.0000 
     32 O4         10.0510   15.5110   10.8470 O.2       1 <1>         0.0000 
     33 O5          7.7070   15.1600   11.0710 O.2       1 <1>         0.0000 
     34 O6         11.0530   16.0820    1.5150 O.3       1 <1>         0.0000 
     35 S1          8.7650   16.1120   11.2000 S.3       1 <1>         0.0000 
     36 H1         12.1771   14.9816    2.8849 H         1 <1>         0.0000 
     37 H2         10.9996   14.0336    1.9054 H         1 <1>         0.0000 
     38 H3          8.1593   15.8244    2.8687 H         1 <1>         0.0000 
     39 H4          9.1538   17.0987    3.6635 H         1 <1>         0.0000 
     40 H5          9.5893   14.2077    3.7705 H         1 <1>         0.0000 
     41 H6         10.2633   15.9375    8.5917 H         1 <1>         0.0000 
     42 H7          9.6673   18.3716    7.6914 H         1 <1>         0.0000 
     43 H8         13.1390   17.0142    8.2710 H         1 <1>         0.0000 
     44 H9         12.4284   16.2747    9.7519 H         1 <1>         0.0000 
     45 H10        14.0601   15.7300    6.5583 H         1 <1>         0.0000 
     46 H11        11.7092   13.7488    9.6735 H         1 <1>         0.0000 
     47 H12        14.4784   13.5344    5.4205 H         1 <1>         0.0000 
     48 H13        12.1810   11.5219    8.5504 H         1 <1>         0.0000 
     49 H14        13.5616   11.4023    6.4103 H         1 <1>         0.0000 
     50 H15        10.4432   18.2475   10.6805 H         1 <1>         0.0000 
     51 H16         9.3649   19.4602    9.8985 H         1 <1>         0.0000 
     52 H17         7.0896   16.6869    8.8463 H         1 <1>         0.0000 
     53 H18         7.7529   18.2736    8.3103 H         1 <1>         0.0000 
     54 H19         6.4114   18.3104   10.8624 H         1 <1>         0.0000 
     55 H20        10.9929   16.1005   13.0942 H         1 <1>         0.0000 
     56 H21        11.0177   16.6672   15.5556 H         1 <1>         0.0000 
     57 H22         6.7234   17.2271   15.4397 H         1 <1>         0.0000 
     58 H23         6.6981   16.6334   13.0179 H         1 <1>         0.0000 
     59 H24         5.2418   20.3301   10.1018 H         1 <1>         0.0000 
     60 H25         7.0317   20.3916   10.0818 H         1 <1>         0.0000 
     61 H26         6.1149   20.1909    8.5442 H         1 <1>         0.0000 
     62 H27         4.9752   16.6144    9.8679 H         1 <1>         0.0000 
     63 H28         4.1692   18.0687   10.5335 H         1 <1>         0.0000 
     64 H29         4.3505   17.8687    8.7525 H         1 <1>         0.0000 
     65 H30         9.1196   16.2275    0.8253 H         1 <1>         0.0000 
     66 H31         9.8102   17.7217    1.5568 H         1 <1>         0.0000 
     67 H32        11.6176   16.9955    6.1965 H         1 <1>         0.0000 
     68 H33         9.7193   17.3634   17.4328 H         1 <1>         0.0000 
     69 H34         7.9410   17.4920   17.3711 H         1 <1>         0.0000 
     70 H35        11.9131   18.9328    7.6526 H         1 <1>         0.0000 
@<TRIPOS>BOND
     1    4    1 1    
     2    1   34 1    
     3    4    2 1    
     4    2   25 1    
     5   26    3 1    
     6    3   29 1    
     7    3   30 2    
     8   29    4 1    
     9    6    5 1    
    10    5    7 1    
    11    5   26 1    
    12   14    6 1    
    13    6   31 1    
    14    7    8 1    
    15    8    9 ar   
    16    8   10 ar   
    17    9   11 ar   
    18   10   12 ar   
    19   11   13 ar   
    20   12   13 ar   
    21   27   14 1    
    22   15   16 1    
    23   27   15 1    
    24   16   23 1    
    25   16   24 1    
    26   17   18 ar   
    27   17   22 ar   
    28   35   17 1    
    29   18   19 ar   
    30   19   20 ar   
    31   21   20 ar   
    32   20   28 1    
    33   22   21 ar   
    34   25   34 1    
    35   27   35 1    
    36   35   32 2    
    37   35   33 2    
    38    1   36 1    
    39    1   37 1    
    40    2   38 1    
    41    2   39 1    
    42    4   40 1    
    43    5   41 1    
    44    6   42 1    
    45    7   43 1    
    46    7   44 1    
    47    9   45 1    
    48   10   46 1    
    49   11   47 1    
    50   12   48 1    
    51   13   49 1    
    52   14   50 1    
    53   14   51 1    
    54   15   52 1    
    55   15   53 1    
    56   16   54 1    
    57   18   55 1    
    58   19   56 1    
    59   21   57 1    
    60   22   58 1    
    61   23   59 1    
    62   23   60 1    
    63   23   61 1    
    64   24   62 1    
    65   24   63 1    
    66   24   64 1    
    67   25   65 1    
    68   25   66 1    
    69   26   67 1    
    70   28   68 1    
    71   28   69 1    
    72   31   70 1    
@<TRIPOS>SUBSTRUCTURE
     1 ****       15 TEMP              0 ****  ****    0 ROOT 
