#	Name:			LIM::DMP_323_pdb1qbs_1
#	Creating user name:	czodro
#	Creation time:		Thu Jul 21 11:45:32 2005

#	Modifying user name:	czodro
#	Modification time:	Thu Jul 21 11:45:59 2005

@<TRIPOS>MOLECULE
LIM::DMP_323_pdb1qbs_1
   80    84     1     0     0
SMALL
NO_CHARGES


@<TRIPOS>ATOM
      1 C1         -8.8240   15.2890   27.7960 C.2     400 LIG         0.0000 
      2 C3         -8.7650   17.6120   26.8940 C.3     400 LIG         0.0000 
      3 C4        -10.1510   18.1420   27.1200 C.3     400 LIG         0.0000 
      4 C5        -10.6110   17.8660   28.5290 C.3     400 LIG         0.0000 
      5 C6        -10.8730   16.3920   28.7780 C.3     400 LIG         0.0000 
      6 C20        -7.8950   15.6060   25.6580 C.3     400 LIG         0.0000 
      7 C21        -8.3940   16.0040   24.3140 C.ar    400 LIG         0.0000 
      8 C22        -9.7620   16.0350   23.9810 C.ar    400 LIG         0.0000 
      9 C23       -10.1750   16.3420   22.6670 C.ar    400 LIG         0.0000 
     10 C24        -9.1890   16.6000   21.7020 C.ar    400 LIG         0.0000 
     11 C25        -7.8260   16.5690   22.0380 C.ar    400 LIG         0.0000 
     12 C26        -7.4240   16.2810   23.3540 C.ar    400 LIG         0.0000 
     13 C27        -9.5830   16.8780   20.2990 C.3     400 LIG         0.0000 
     14 C30        -7.6750   18.1900   27.7820 C.3     400 LIG         0.0000 
     15 C31        -6.3090   18.0780   27.1330 C.ar    400 LIG         0.0000 
     16 C32        -5.3710   17.1390   27.6170 C.ar    400 LIG         0.0000 
     17 C33        -4.1150   17.0170   27.0020 C.ar    400 LIG         0.0000 
     18 C34        -3.7920   17.8380   25.9060 C.ar    400 LIG         0.0000 
     19 C35        -4.7220   18.7820   25.4150 C.ar    400 LIG         0.0000 
     20 C36        -5.9870   18.8970   26.0350 C.ar    400 LIG         0.0000 
     21 C60       -11.9890   15.7360   27.9350 C.3     400 LIG         0.0000 
     22 C61       -12.5340   14.4820   28.5860 C.ar    400 LIG         0.0000 
     23 C62       -13.2610   14.5870   29.8040 C.ar    400 LIG         0.0000 
     24 C63       -13.6010   13.4140   30.5130 C.ar    400 LIG         0.0000 
     25 C64       -13.2390   12.1520   29.9960 C.ar    400 LIG         0.0000 
     26 C65       -12.5480   12.0500   28.7750 C.ar    400 LIG         0.0000 
     27 C66       -12.1950   13.2160   28.0670 C.ar    400 LIG         0.0000 
     28 C70        -9.5160   14.6730   30.0030 C.3     400 LIG         0.0000 
     29 C71        -9.6180   15.2850   31.3760 C.ar    400 LIG         0.0000 
     30 C72       -10.2970   14.5400   32.3750 C.ar    400 LIG         0.0000 
     31 C73       -10.3520   15.0360   33.6820 C.ar    400 LIG         0.0000 
     32 C74        -9.7350   16.2670   33.9880 C.ar    400 LIG         0.0000 
     33 C75        -9.0700   17.0220   32.9890 C.ar    400 LIG         0.0000 
     34 C76        -9.0140   16.5230   31.6810 C.ar    400 LIG         0.0000 
     35 C77        -9.7360   16.7740   35.4100 C.3     400 LIG         0.0000 
     36 N2         -8.6000   16.1560   26.8220 N.am    400 LIG         0.0000 
     37 N7         -9.6940   15.5050   28.8070 N.am    400 LIG         0.0000 
     38 O1         -8.1740   14.2590   27.7580 O.2     400 LIG         0.0000 
     39 O4        -10.0250   19.4970   26.8340 O.3     400 LIG         0.0000 
     40 O5        -11.8020   18.5230   28.8520 O.3     400 LIG         0.0000 
     41 O27        -9.0170   18.1250   19.9200 O.3     400 LIG         0.0000 
     42 O77       -11.0720   16.7380   35.8800 O.3     400 LIG         0.0000 
     43 H1         -8.5204   17.9549   25.8779 H       400 LIG         0.0000 
     44 H2        -10.8643   17.6874   26.4168 H       400 LIG         0.0000 
     45 H3         -9.8278   18.2180   29.2164 H       400 LIG         0.0000 
     46 H4        -11.2470   16.3674   29.8121 H       400 LIG         0.0000 
     47 H5         -7.9595   14.5104   25.7322 H       400 LIG         0.0000 
     48 H6         -6.8457   15.9261   25.7379 H       400 LIG         0.0000 
     49 H7        -10.5047   15.8210   24.7411 H       400 LIG         0.0000 
     50 H8        -11.2273   16.3777   22.4094 H       400 LIG         0.0000 
     51 H9         -7.0792   16.7684   21.2780 H       400 LIG         0.0000 
     52 H10        -6.3727   16.2746   23.6180 H       400 LIG         0.0000 
     53 H11        -9.2001   16.0896   19.6344 H       400 LIG         0.0000 
     54 H12       -10.6783   16.9378   20.2177 H       400 LIG         0.0000 
     55 H13        -7.8838   19.2538   27.9682 H       400 LIG         0.0000 
     56 H14        -7.6521   17.6400   28.7343 H       400 LIG         0.0000 
     57 H15        -5.6216   16.5116   28.4647 H       400 LIG         0.0000 
     58 H16        -3.3969   16.2932   27.3700 H       400 LIG         0.0000 
     59 H17        -2.8206   17.7456   25.4338 H       400 LIG         0.0000 
     60 H18        -4.4675   19.4122   24.5705 H       400 LIG         0.0000 
     61 H19        -6.7089   19.6159   25.6647 H       400 LIG         0.0000 
     62 H20       -12.8178   16.4493   27.8156 H       400 LIG         0.0000 
     63 H21       -11.5839   15.4633   26.9494 H       400 LIG         0.0000 
     64 H22       -13.5517   15.5594   30.1849 H       400 LIG         0.0000 
     65 H23       -14.1386   13.4829   31.4518 H       400 LIG         0.0000 
     66 H24       -13.4957   11.2530   30.5447 H       400 LIG         0.0000 
     67 H25       -12.2873   11.0752   28.3791 H       400 LIG         0.0000 
     68 H26       -11.6638   13.1396   27.1251 H       400 LIG         0.0000 
     69 H27        -8.5126   14.2299   29.9201 H       400 LIG         0.0000 
     70 H28       -10.2804   13.8843   29.9428 H       400 LIG         0.0000 
     71 H29       -10.7685   13.5957   32.1277 H       400 LIG         0.0000 
     72 H30       -10.8661   14.4772   34.4556 H       400 LIG         0.0000 
     73 H31        -8.6109   17.9729   33.2340 H       400 LIG         0.0000 
     74 H32        -8.5080   17.0866   30.9055 H       400 LIG         0.0000 
     75 H33        -9.1096   16.1297   36.0444 H       400 LIG         0.0000 
     76 H34        -9.3656   17.8091   35.4454 H       400 LIG         0.0000 
     77 H35        -9.7335   19.5976   25.9354 H       400 LIG         0.0000 
     78 H36       -11.6885   19.4557   28.7118 H       400 LIG         0.0000 
     79 H37        -9.2618   18.3157   19.0221 H       400 LIG         0.0000 
     80 H38       -11.0934   17.0541   36.7756 H       400 LIG         0.0000 
@<TRIPOS>BOND
     1    1   36 1    
     2   37    1 1    
     3    1   38 2    
     4    3    2 1    
     5    2   14 1    
     6   36    2 1    
     7    4    3 1    
     8    3   39 1    
     9    5    4 1    
    10    4   40 1    
    11    5   21 1    
    12   37    5 1    
    13    6    7 1    
    14   36    6 1    
    15    7    8 ar   
    16    7   12 ar   
    17    8    9 ar   
    18    9   10 ar   
    19   11   10 ar   
    20   10   13 1    
    21   12   11 ar   
    22   13   41 1    
    23   14   15 1    
    24   15   16 ar   
    25   15   20 ar   
    26   16   17 ar   
    27   17   18 ar   
    28   19   18 ar   
    29   20   19 ar   
    30   21   22 1    
    31   22   23 ar   
    32   22   27 ar   
    33   23   24 ar   
    34   24   25 ar   
    35   26   25 ar   
    36   27   26 ar   
    37   28   29 1    
    38   28   37 1    
    39   29   30 ar   
    40   29   34 ar   
    41   30   31 ar   
    42   31   32 ar   
    43   32   33 ar   
    44   32   35 1    
    45   33   34 ar   
    46   35   42 1    
    47    2   43 1    
    48    3   44 1    
    49    4   45 1    
    50    5   46 1    
    51    6   47 1    
    52    6   48 1    
    53    8   49 1    
    54    9   50 1    
    55   11   51 1    
    56   12   52 1    
    57   13   53 1    
    58   13   54 1    
    59   14   55 1    
    60   14   56 1    
    61   16   57 1    
    62   17   58 1    
    63   18   59 1    
    64   19   60 1    
    65   20   61 1    
    66   21   62 1    
    67   21   63 1    
    68   23   64 1    
    69   24   65 1    
    70   25   66 1    
    71   26   67 1    
    72   27   68 1    
    73   28   69 1    
    74   28   70 1    
    75   30   71 1    
    76   31   72 1    
    77   33   73 1    
    78   34   74 1    
    79   35   75 1    
    80   35   76 1    
    81   39   77 1    
    82   40   78 1    
    83   41   79 1    
    84   42   80 1    
@<TRIPOS>SUBSTRUCTURE
     1 ****       28 TEMP              0 ****  ****    0 ROOT 
