@<TRIPOS>MOLECULE
carvedilol
 56 59 0 0 0
SMALL
GASTEIGER
Energy = 0

@<TRIPOS>ATOM
      1 C1         -5.1647   -2.0410   -2.3573 C.ar    1  UNK         0.0109
      2 C2         -5.9703   -2.3213   -1.2578 C.ar    1  UNK         0.0476
      3 N1         -6.1442   -1.2189   -0.4973 N.ar    1  UNK        -0.3540
      4 C3         -5.3746   -4.2994   -3.1001 C.ar    1  UNK        -0.0611
      5 C4         -6.1766   -4.5871   -1.9848 C.ar    1  UNK        -0.0598
      6 C5         -6.4909   -3.5977   -1.0443 C.ar    1  UNK        -0.0378
      7 C6         -4.8585   -3.0140   -3.3085 C.ar    1  UNK        -0.0519
      8 C7         -4.8100   -0.6118   -2.2110 C.ar    1  UNK         0.0490
      9 C8         -5.4685   -0.1937   -1.0591 C.ar    1  UNK         0.0510
     10 C9         -5.3912    1.1269   -0.6153 C.ar    1  UNK        -0.0375
     11 C10        -4.6316    2.0225   -1.3797 C.ar    1  UNK        -0.0563
     12 C11        -3.9601    1.6000   -2.5371 C.ar    1  UNK        -0.0192
     13 C12        -4.0200    0.2645   -2.9537 C.ar    1  UNK         0.1303
     14 O1         -3.3139   -0.1757   -4.0712 O.3     1  UNK        -0.4887
     15 C13        -2.0558   -0.8046   -3.7705 C.3     1  UNK         0.1166
     16 C14        -1.0444    0.1985   -3.1519 C.3     1  UNK         0.1015
     17 C15         0.3573   -0.4420   -2.9677 C.3     1  UNK         0.0253
     18 N2          1.2815    0.5438   -2.3652 N.3     1  UNK        -0.3102
     19 C16         2.6435    0.0319   -2.0934 C.3     1  UNK         0.0302
     20 C17         3.5022    1.1118   -1.3915 C.3     1  UNK         0.1022
     21 O2          4.7879    0.5496   -1.0787 O.3     1  UNK        -0.4870
     22 C18         5.6547    1.4150   -0.4112 C.ar    1  UNK         0.1619
     23 C19         5.9023    1.2306    0.9517 C.ar    1  UNK         0.1615
     24 C20         6.7804    2.0871    1.6236 C.ar    1  UNK        -0.0163
     25 C21         7.3886    3.1432    0.9389 C.ar    1  UNK        -0.0581
     26 C22         7.1370    3.3300   -0.4234 C.ar    1  UNK        -0.0581
     27 C23         6.2784    2.4594   -1.1008 C.ar    1  UNK        -0.0163
     28 O3          5.2740    0.1862    1.6316 O.3     1  UNK        -0.4915
     29 C24         4.2643    0.5966    2.5677 C.3     1  UNK         0.0790
     30 O4         -0.9516    1.3826   -3.9612 O.3     1  UNK        -0.3872
     31 H1         -6.7038   -1.1676    0.3669 H       1  UNK         0.1659
     32 H2         -5.1502   -5.0852   -3.8147 H       1  UNK         0.0618
     33 H3         -6.5611   -5.5930   -1.8479 H       1  UNK         0.0618
     34 H4         -7.1145   -3.8117   -0.1828 H       1  UNK         0.0638
     35 H5         -4.2488   -2.7839   -4.1750 H       1  UNK         0.0624
     36 H6         -5.9028    1.4448    0.2869 H       1  UNK         0.0638
     37 H7         -4.5618    3.0607   -1.0701 H       1  UNK         0.0619
     38 H8         -3.3853    2.3147   -3.1168 H       1  UNK         0.0654
     39 H9         -2.1991   -1.6654   -3.0975 H       1  UNK         0.0723
     40 H10        -1.6590   -1.1786   -4.7264 H       1  UNK         0.0723
     41 H11        -1.4038    0.5163   -2.1596 H       1  UNK         0.0640
     42 H12         0.2697   -1.3168   -2.3032 H       1  UNK         0.0450
     43 H13         0.7476   -0.7805   -3.9416 H       1  UNK         0.0450
     44 H14         1.3289    1.4341   -2.9809 H       1  UNK         0.1221
     45 H15         2.5779   -0.8446   -1.4288 H       1  UNK         0.0457
     46 H16         3.1370   -0.2761   -3.0303 H       1  UNK         0.0457
     47 H17         3.6138    1.9841   -2.0552 H       1  UNK         0.0709
     48 H18         2.9943    1.4316   -0.4678 H       1  UNK         0.0709
     49 H19         6.9938    1.9325    2.6761 H       1  UNK         0.0655
     50 H20         8.0576    3.8174    1.4648 H       1  UNK         0.0619
     51 H21         7.6094    4.1500   -0.9554 H       1  UNK         0.0619
     52 H22         6.0983    2.5939   -2.1623 H       1  UNK         0.0655
     53 H23         3.8235   -0.3072    3.0130 H       1  UNK         0.0660
     54 H24         3.4697    1.1623    2.0582 H       1  UNK         0.0660
     55 H25         4.6884    1.2132    3.3743 H       1  UNK         0.0660
     56 H26        -0.6493    1.1990   -4.8443 H       1  UNK         0.2100
@<TRIPOS>BOND
     1     1     7   ar
     2     1     8   ar
     3     1     2   ar
     4     2     3   ar
     5     2     6   ar
     6     3     9   ar
     7     3    31    1
     8     4     7   ar
     9     4     5   ar
    10     4    32    1
    11     5     6   ar
    12     5    33    1
    13     6    34    1
    14     7    35    1
    15     8     9   ar
    16     8    13   ar
    17     9    10   ar
    18    10    11   ar
    19    10    36    1
    20    11    12   ar
    21    11    37    1
    22    12    13   ar
    23    12    38    1
    24    13    14    1
    25    14    15    1
    26    15    16    1
    27    15    39    1
    28    15    40    1
    29    16    17    1
    30    16    30    1
    31    16    41    1
    32    17    18    1
    33    17    42    1
    34    17    43    1
    35    18    19    1
    36    18    44    1
    37    19    20    1
    38    19    45    1
    39    19    46    1
    40    20    21    1
    41    20    47    1
    42    20    48    1
    43    21    22    1
    44    22    23   ar
    45    22    27   ar
    46    23    24   ar
    47    23    28    1
    48    24    25   ar
    49    24    49    1
    50    25    26   ar
    51    25    50    1
    52    26    27   ar
    53    26    51    1
    54    27    52    1
    55    28    29    1
    56    29    53    1
    57    29    54    1
    58    29    55    1
    59    30    56    1

